8

C -0.000025240   0.000001849   0.765379625
C 0.000004258   0.000002557   -0.765392944
H 0.000002685   1.031380643   1.174650084
H -0.893312297   0.515644403   -1.174477812
H -0.893314112   -0.515645339   1.174469403
H 0.000003812   -1.031381914   -1.174658606
H 0.893320724   -0.515646767   1.174508059
H 0.893320170   0.515644567   -1.174477809
